Hello,Git
Hello,Form Assinowsk)
New line. 1413423